tests/data/power_flow/automatic-tap-regulator/link-before-transformer-min-voltage/sym_output.json
{
  "version": "1.0",
  "type": "sym_output",
  "is_batch": false,
  "attributes": {},
  "data": {
    "node": [
      {"id": 1, "energized": 1, "u_pu": 1.0499996683281583, "u": 10499.996683281583, "u_angle": -9.304973286100149e-09, "p": 448.60517526011921, "q": 3455.062169000641},
      {"id": 2, "energized": 1, "u_pu": 1.0499996683281583, "u": 10499.996683281583, "u_angle": -9.304973286100149e-09, "p": 0, "q": 0},
      {"id": 3, "energized": 1, "u_pu": 0.97978686725377928, "u": 391.91474690151171, "u_angle": 0.52361726250244378, "p": 0, "q": 0}
    ],
    "transformer": [
      {"id": 5, "energized": 1, "loading": 0.0087101597269114324, "p_from": 448.60517526011915, "q_from": 3455.062169000641, "i_from": 0.19157389148604148, "s_from": 3484.063890764573, "p_to": 0, "q_to": 0, "i_to": 0, "s_to": 0}
    ],
    "transformer_tap_regulator": [
      {"id": 6, "energized": 1, "tap_pos": 5}
    ],
    "source": [
      {"id": 7, "energized": 1, "p": 448.60517526011921, "q": 3455.062169000641, "i": 0.19157389148604148, "s": 3484.063890764573, "pf": 0.12875917013154239}
    ]
  }
}